Geom Title=24274737
Program Version=631
Viewing Rectangle=1413034.59051289 , 1415463.466845 , 470975.925766453 , 467854.770541947 

River Reach=24274737        ,24274737        
Reach XY= 694 
1415164.34010717468923.5702520101415162.79557405 468923.47697556
1415159.82051438 468923.29095231 1415156.8457828 468923.10492906
1415153.87072314468922.9192338881415150.89599155468922.733210638
1415147.92093189468922.5471873881415144.94587222468922.361164138
1415141.97114064468922.1754689811415138.99608096468921.989445731
1415136.02134939468921.8034224811415133.04628973468921.617727309
1415130.07123005468921.4317040591415127.09649847468921.245680809
 1415124.1214388468921.0596575591415121.14670722468920.873962387
1415118.17164755468920.6879391371415115.19691597468920.501915887
1415112.22185631468920.3158926371415109.24679664 468920.13019748
1415106.27206506 468919.944174231415103.29700539 468919.75815098
1415100.32227381468919.5724558091415097.34721413468919.386432558
1415094.37215447468919.2004093081415091.39742289468919.014386058
1415088.42236322468918.8286908871415085.44763164468918.642667636
1415082.47257197468918.4566443861415079.49751231 468918.27094923
1415076.52278072468918.0849259791415073.54772106468917.898902729
1415070.57298948468917.7128794791415067.59792981468917.527184308
1415064.62287013468917.3411610571415061.64813855468917.155137807
1415058.67307889468916.969442636 1415055.6983473468916.783419386
1415052.72328764468916.5973961351415049.74822797  468916.4113729
1415046.77349639468916.2256777291415043.79843672468916.039654478
1415040.82370514468915.8536312281415037.84864548468915.667607978
1415034.87358581468915.4819128071415031.89885423468915.295889556
1415028.92379455468915.1098663061415025.94906297 468914.92417115
 1415022.9740033  468914.73814791415019.99894364468914.552124649
1415017.02421205468914.3661013991415014.04915239468914.180406228
1415011.07442081468913.9943829771415008.09936114468913.808359727
1415005.12462956468913.6226645561415002.14956988468913.436641306
1414999.17451023468913.2506180551414996.19977863468913.064594805
1414993.22471897468912.8788996491414990.24998739468912.692876399
1414987.27492772468912.5068531481414984.29986806468912.320829898
1414981.32513647468912.1351347271414978.35007681468911.949111477
1414975.37534522468911.7630882261414972.40028556468911.577393055
1414969.42522588468911.391369805 1414966.4504943468911.205346555
1414963.47543463468911.0193233041414960.50070305468910.833628148
1414957.52564339468910.6476048981414954.57158105468911.156134054
 1414951.6178468468911.6649913041414948.66378447468912.173520476
1414945.70972213468912.6820496471414942.75598788468913.190578803
1414939.80192555468913.6994360541414936.84786323468914.207965225
1414933.89412898468914.7164943961414930.94006664468915.225351647
1414927.98600431468915.7338808031414925.03227006468916.242409974
1414922.07820772468916.7512672251414919.12414539468917.259796396
1414916.17041114468917.7683255521414913.21634881468918.276854724
1414910.26228647468918.7857119741414907.30855222468919.294241145
1414904.35448989468919.8027703171414901.40042755468920.311627552
 1414898.4466933468920.8201567231414895.49263097468921.328685895
1414892.53856863468921.8375431451414889.58483438468922.346072316
1414886.63077205468922.8546014731414883.67670973468923.363130644
1414880.72297548468923.8719878941414877.76891313468924.380517066
1414874.81485081468924.8890462221414871.86111656468925.397903472
1414868.90705422468925.9064326441414865.95299189468926.414961815
1414862.99925764468926.9238190651414860.04519531468927.432348222
1414857.09113297468927.9408773931414854.13739872468928.449406564
1414851.18333639468928.9582638141414848.22927405468929.466792971
 1414845.2755398468929.9753221421414842.32147747468930.484179392
1414839.36741515468930.9927085641414836.41368088 468931.50123772
1414833.45961855 468932.010094971414830.50555623468932.518624142
1414827.55182198468933.0271533131414824.59775963 468933.53568247
1414821.64369731 468934.044539721414818.68996306468934.553068891
1414815.73590071468935.0615980631414812.78183839468935.570455313
1414809.82810414468936.0789844691414806.87404181468936.587513641
1414803.91997947468937.0963708911414800.96624522468937.604900062
1414798.01218289468938.1134292191414795.05812055 468938.62195839
 1414792.1043863 468939.130815641414789.15032397468939.639344811
1414786.19626164468940.147873983 1414783.2425274468940.656731233
1414780.28846505468941.1652603891414777.33440273468941.673789561
1414774.38066848468942.1826468111414771.42660613468942.691175982
1414768.47254381468943.1997051391414765.51880956 468943.70823431
1414762.56474721 468944.217091561414759.61068489468944.725620732
1414756.65695064468945.2341498881414753.70288831468945.743007138
1414750.74882597 468946.251536311414747.79509172468946.760065481
1414744.84102939468947.2685946381414741.88696705468947.777451888
 1414738.9332328468948.2859810591414735.97917047 468948.79451023
1414733.02510814468949.3033674811414730.07137389468949.811896637
1414727.11731155468950.3204258081414724.16324922468950.829283059
1414721.20951498 468951.337812231414718.25545263468951.846341386
1414715.30139031468952.3548705581414712.34765606468952.863727808
1414709.39359373468953.3722569791414706.43953139468953.880786136
1414703.48579714468954.3896433861414700.53173481468954.898172557
1414697.57767247468955.4067017291414694.62393822468955.915558979
1414691.66987589468956.4240881351414688.71581356468956.932617307
 1414685.7620793468957.4411464781414682.80801697468957.950003728
1414679.85395464  468958.45853291414676.90022039468958.967062056
1414673.94615805468959.4759193061414670.99209572468959.984448478
1414668.03836147468960.4929776491414665.08429913468961.001834899
 1414662.1302368468961.5103640561414659.17650256468962.018893227
1414656.22244023468962.5274223981414653.26837789468963.036279649
1414650.31464364468963.5448088051414647.36058131468964.053337976
1414644.40651897468964.5621952271414641.45245664468965.070724398
1414638.49872239468965.5792535541414635.54466006468966.088110805
1414632.59059772468966.5966399761414629.63686347468967.105169147
1414626.68280114468967.613698304 1414623.7287388468968.122555554
1414620.77500455468968.6310847251414617.82094222468969.139613897
 1414614.8668799468969.6484711471414611.91314563468970.157000303
 1414608.9590833468970.6655294751414606.00502098468971.174386725
1414603.05128673468971.6829158961414600.09722438468972.191445053
1414597.14316206468972.6999742241414594.18942781468973.208831474
1414591.23536547468973.7173606461414588.28130314468974.225889802
1414585.32756889468974.7347470521414582.37350656468975.243276224
1414579.41944422468975.7518053951414576.46570997468976.260662645
1414573.51164764468976.769191816 1414570.5575853468977.277720973
1414567.60385105468977.7862501441414564.64978872468978.295107394
1414561.69572639468978.8036365661414558.74199213468979.312165722
 1414555.7879298468979.8210229721414552.83386748468980.329552144
1414549.88013323468980.8380813151414546.92607088468981.346938565
1414543.97200856468981.8554677221414541.01827431468982.363996893
1414538.06421196468982.8725260651414535.11014964468983.381383315
1414532.15641539468983.8899124711414529.20235306468984.398441643
1414526.24829072468984.9072988931414523.29455647468985.415828064
1414520.34049414468985.924357221 1414517.3864318468986.432886392
1414514.43269755468986.9417436421414511.47863522468987.450272813
1414508.52457289 468987.958801971414505.57083865 468988.46765922
 1414502.6167763468988.9761883911414499.66271397468989.484717563
1414496.70897973468989.9935748131414493.75491738468990.502103969
1414490.80085506468991.0106331411414487.84712081468991.519162312
1414484.89305848468992.0280195621414481.93899614468992.536548719
1414478.98526189 468993.045077891414476.03119956 468993.55393514
1414473.07713722468994.0624643121414470.12340297468994.570993483
1414467.16934064468995.079850733 1414464.2152783 468995.58837989
1414461.26154405468996.0969090611414458.30748172468996.605438232
1414455.35341939468997.1142954831414452.39968514468997.622824639
 1414449.4456228 468998.131353811414446.49156047468998.640211061
1414443.53782623468999.1487402321414440.58376388468999.657269388
1414437.62970155469000.1661266391414434.67596731 469000.67465581
1414431.72190498469001.1831849811414428.76784264469001.691714138
1414425.81410839469002.2005713881414422.86004606469002.709100559
1414419.90598372469003.2176297311414416.95224947469003.726486981
1414413.99818714469004.2350161371414411.04412481469004.743545309
1414408.09039055469005.2524025591414405.13632822 469005.76093173
1414402.18226589469006.2694608871414399.22853164469006.777990058
 1414396.2744693469007.2868473081414393.32040697 469007.79537648
1414390.36667272469008.3039056361414387.41261038469008.812762886
1414384.45854805469009.3212920581414381.50481381469009.829821229
1414378.55075148469010.3386784791414375.59668913469010.847207636
1414372.64295489469011.3557368071414369.68889256469011.864265978
1414366.73483022469012.3731232291414363.78109597  469012.8816524
1414360.82703364469013.3901815561414357.87297131469013.899038807
1414354.91923705469014.4075679781414351.96517472469014.916097149
1414349.01111239469015.4249543991414346.05737814469015.933483556
 1414343.1033158469016.4420127271414340.14925347469016.950541899
1414337.19551922469017.4593991491414334.24145688469017.967928305
1414331.65517597469019.4830171471414329.06889506469020.998434052
1414326.48228605469022.5135228931414323.89600514469024.028939813
1414321.30972423 469025.54402864 1414318.7234433 469027.05944556
1414316.13716239469028.5745343861414313.55055338469030.089951307
1414310.96427247469031.6050401481414308.37799156469033.120128974
1414305.79171064469034.6355458951414303.20510164469036.150634721
1414300.61882073469037.666051641 1414298.0325398469039.181140482
1414295.44625889469040.6965573881414292.85997798469042.211646229
1414290.27336897469043.7270631491414287.68708806469045.242151976
1414285.10080715469046.7575688961414282.51452622469048.272657722
1414279.92824531469049.787746564 1414277.3416363469051.303163469
1414274.75535539 469052.818252311414272.16907448 469054.33366923
1414269.58279355469055.8487580571414266.99651264469057.364174977
1414264.40990365469058.8792638031414261.82362272469060.394680724
1414259.23734181469061.9097695651414256.65106089469063.424858391
1414254.06477997469064.9402753111414251.47817098469066.455364138
1414248.89189005469067.9707810581414246.30560914469069.485869899
1414243.71932822469071.0012868051414241.13271922469072.516375646
1414238.54643831469074.0317925661414235.96015739469075.546881393
1414233.37387647469077.0622983131414230.78759556469078.577387139
1414228.20098655469080.0924759811414225.61470564469081.607892886
1414223.02842472469083.122981727 1414220.4421438469084.638398647
1414217.85586289469086.1534874741414215.26925389469087.668904394
1414212.68297297 469089.183993221414210.09669206469090.699410141
1414207.51041114469092.2144989821414204.92413022469093.729587808
1414202.33752123469095.245004728 1414199.7512403469096.760093555
1414197.16495939469098.2755104751414194.57867847469099.790599316
1414191.99239756469101.3060162221414189.40578856469102.821105063
1414186.81950764469104.3365219831414184.23322672 469105.85161081
 1414181.6469458 469107.36702773 1414179.0603368469108.882116556
1414176.47405589469110.3972053971414173.88777497469111.912622303
1414171.30149406469113.4277111441414168.71521313469114.943128064
1414166.12860414469116.4582168911414163.54232322469117.973633811
 1414160.9560423469119.4887226371414158.36976139469121.004139557
1414155.78348047469122.5192283991414153.19687147469124.034317225
1414150.61059056469125.5497341451414148.02430964469127.064822972
1414145.43802872469128.5802398921414142.85174781469130.095328733
 1414140.2651388469131.6107456391414137.67885789 469133.12583448
1414135.09257697469134.6412513851414132.50629605469136.156340227
1414129.92001514469137.6717571471414127.33340614469139.186845973
1414124.74712522469140.7019348141414122.16084431 469142.21735172
1414119.57456338469143.7324405611414116.98795439469145.247857481
1414114.40167347469146.7629463081414111.81539255469148.278363228
1414109.22911164469149.7934520541414106.64283071469151.308868974
1414104.05622172469152.8239578161414101.46994081469154.339046642
1414098.88365988469155.8544635621414096.29737897469157.369552389
1414093.71109806469158.8849693091414091.12448905469160.400058135
1414088.53820814469161.9154750561414085.95192721469163.430563897
 1414083.3656463469164.9459808021414080.77936539469166.461069644
1414078.19275638 469167.976158471414075.60647547 469169.49157539
1414073.02019456469171.0066642311414070.43391363469172.522081137
1414067.84730464469174.0371699781414065.26102372469175.552586898
 1414062.6747428469177.0676757251414060.08846189469178.583092645
1414057.50218098469180.0981814711414054.91557197469181.613598391
1414052.32929106469183.1286872331414049.74301013469184.643776059
1414047.15672922469186.1591929791414044.57044831469187.674281806
 1414041.9838393469189.1896987261414039.39755839469190.704787552
1414036.81127748469192.2202044731414034.22499655469193.735293314
1414031.63871564469195.2507102191414029.05210663 469196.76579906
1414026.46582572469198.2808878871414023.87954481469199.796304807
1414021.29326388469201.3113936481414018.70698297469202.826810554
1414016.12037396469204.3418993951414013.53409305469205.857316315
1414010.94781214469207.3724051421414008.36153123469208.887822062
1414005.77492222469210.4029108881414003.18864131469211.918327808
1414000.60236038 469213.433416651413998.01607947469214.948505476
1413995.42979856469216.4639223961413992.84318955469217.979011223
1413990.25690864469219.4944281431413987.67062773469221.009516969
 1413985.0843468 469222.524933891413982.49806589469224.040022731
1413979.91145688469225.5554396361413977.32517597469227.070528477
1413974.73889506469228.5856173041413972.15261413469230.101034224
1413969.56633322469231.6161230651413966.97972423469233.131539971
 1413964.3934433469234.6466288121413961.80716239469236.162045732
1413959.22088148469237.6771345591413956.63460055469239.192551479
1413954.04799156469240.7076403051413951.46171063469242.223057225
1413948.87542972469243.7381460671413946.28914881469245.253234893
 1413943.7025398469246.7686518131413941.11625889 469248.28374064
1413938.52997798 469249.799157561413935.94369705469251.314246386
1413933.35741614469252.8296633061413930.77080713469254.344752148
1413928.18452622469255.8601690531413925.59824531469257.375257894
 1413922.8954948469258.6528143881413920.19307239469259.930370897
1413917.49032189 469261.208255471413914.78757139469262.485811979
1413912.08482088469263.7633684721413909.38239847469265.040924981
1413906.67964797469266.3184814751413903.97689748469267.596366063
1413901.27414697469268.8739225571413898.57172455469270.151479065
1413895.86897406469271.4290355591413893.16622356469272.706592053
1413890.46347305469273.9844766411413887.76105064 469275.26203315
1413885.05830014469276.5395896431413882.35554963469277.817146137
1413879.65279914469279.0947026461413876.95037672469280.372587219
1413874.24762622469281.6501437281413871.54487573469282.927700222
1413868.84212522 469284.205256731413866.13970281469285.482813224
1413863.43695231469286.760697812 1413860.7342018469288.038254306
 1413858.0314513469289.3158108151413855.32902889469290.593367308
1413852.62627839469291.8709238021413849.92352788 469293.14880839
1413847.22077739469294.4263648991413844.51835497469295.703921393
1413841.81560448469296.9814778861413839.11285397469298.259034395
1413836.41010347469299.5369189831413833.70768106469300.814475477
1413831.00493056469302.0920319711413828.30218005469303.369588479
1413825.59942955469304.6471449731413822.89700714469305.925029561
1413820.19425663469307.2025860551413817.49150614469308.480142564
1413814.78875564469309.7576990571413812.08633322469311.035583645
1413809.38358273469312.3131401391413806.68083222469313.590696648
1413803.97808172469314.8682531421413801.27565931469316.145809636
 1413798.5729088469317.423694223 1413795.8701583469318.701250732
1413793.16740781469319.9788072261413790.46498539 469321.25636372
1413787.76223488469322.5339202281413785.05948439469323.811804816
1413782.35673389 469325.089361311413779.65431148469326.366917804
1413776.95156097469327.6444743131413774.24881047469328.922030807
1413771.54605997469330.1999153941413768.84363756469331.477471888
1413766.14088705469332.7550283971413763.43813655469334.032584891
1413760.73538606  469335.31014141413758.03296363469336.588025972
1413755.33021314469337.8655824811413752.62746264469339.143138975
1413749.92471214469340.4206954691413747.22228973469341.698251978
1413744.51953922469342.9761365651413741.81678872469344.253693059
1413739.11403821469345.531249553 1413736.4116158469346.808806062
 1413733.7088653469348.0863625561413731.00611481469349.364247143
1413728.30336431469350.6418036371413725.60094188469351.919360146
1413722.89819139 469353.196916641413720.19544089469354.474473149
1413717.49269038469355.7523577211413714.79026797 469357.02991423
1413712.08751747469358.3074707241413709.38476697469359.585027233
1413706.68201648469360.8625837271413703.97959405469362.140468314
1413701.27684355469363.4180248081413698.57409306469364.695581302
 1413695.5967368469364.4924977271413692.61938055469364.289414138
1413689.64202431469364.0866586421413686.66466805469363.883575052
 1413683.6873118469363.6804914771413680.70995556469363.477407888
 1413677.7325993469363.2746523921413674.75524305469363.071568802
1413671.77788681469362.8684852271413668.80053055469362.665401638
 1413665.8231743469362.4626461421413662.84581806469362.259562552
 1413659.8684618469362.0564789771413656.89110555469361.853395388
1413653.91374931469361.6506398921413650.93639305469361.447556302
1413647.95903681469361.2444727271413644.98168056469361.041389138
 1413642.0043243469360.8386336421413639.02696806469360.635550052
1413636.04928373469360.4324664771413633.07192747469360.229382887
1413630.09457122469360.0266273921413627.11721498469359.823543802
1413624.13985872469359.6204602271413621.16250247469359.417376637
1413618.18514623469359.2146211421413615.20778997469359.011537552
1413612.23043372469358.8084539771413609.25307748469358.605370387
1413606.27572122469358.4026148921413603.29836497469358.199531317
1413600.32100873469357.9964477271413597.34365247469357.793364137
1413594.36629622469357.5906086421413591.38893998469357.387525067
1413588.41158372469357.1844414771413585.43422747469356.981357887
1413582.45687123469356.7786023911413579.47951497469356.575518817
1413576.50215872469356.3724352271413573.52480248469356.169351637
1413570.54744622469355.9665961411413567.57008997469355.763512567
1413564.59273373469355.5604289771413561.61537747469355.357345387
1413558.63802122469355.1545898911413555.66066498469354.951506317
1413552.68330872469354.7484227271413549.70595247469354.545339137
1413546.72859623469354.3425836411413543.75123997469354.139500067
1413540.77388372469353.9364164771413537.79652748469353.733332887
1413534.81917122469353.5305773911413531.84181497469353.327493817
1413528.86445872469353.1244102271413525.88710247469352.921326637
1413522.90974621469352.7185711411413519.93238997469352.515487567
1413516.95503372469352.3124039771413513.97734939469352.109320387
1413510.99999315469351.9062368121413508.02263689469351.703481317
1413505.04528064469351.500397727 1413502.0679244469351.297314137
1413499.09056814469351.0942305621413496.11321189469350.891475067
1413493.13585564469350.6883914771413490.15849939469350.485307887
1413487.18114313469350.2822243121413484.20378689469350.079468817
1413481.22643064469349.8763852271413478.24907438469349.673301637
1413475.27171814469349.4702180621413472.29436189469349.267462566
1413469.31700563469349.0643789771413466.33964939469348.861295387
1413463.36229314469348.6582118121413460.38493688469348.455456316
1413457.40758064469348.2523727271413454.43022439469348.049289137
1413451.45286813469347.8462055621413448.47551189469347.643450066
1413445.49815564469347.4403664771413442.52079938469347.237282887
1413439.54344314469347.0341993121413436.56608689469346.831443816
1413433.58873063469346.6283602271413430.61137439469346.425276637
1413427.63401814469346.2221930621413424.65666188469346.019437566
1413421.67930564469345.8163539771413418.70194939469345.613270387
1413415.72459313469345.4101868121413412.74723689469345.207431316
1413409.76988064469345.0043477271413406.79252438469344.801264137
1413403.81516814469344.5981805621413400.83781189469344.395425066
1413397.86045563469344.192341477 1413394.8827713469343.989257887
1413391.90541506469343.786174312 1413388.9280588469343.583418816
1413385.95070255469343.3803352271413382.97334631469343.177251637
1413379.99599005469342.974168062 1413377.0186338469342.771412566
1413374.04127756469342.568328977 1413371.0639213469342.365245387
1413368.08656505469342.1621618121413365.10920881469341.959406316
1413362.13185255469341.7563227271413359.15449631469341.553239137
1413356.17714006469341.350155562 1413353.1997838469341.147400066
1413350.22242756469340.9443164771413347.24507131469340.741232887
1413344.26771505469340.5381493121413341.29035881469340.335393816
1413338.31300256469340.132310227 1413335.3356463469339.929226637
1413332.42423481469339.4512092321413329.51315139469338.973191813
1413326.60173988469338.4951743931413323.69032839469338.017485052
 1413320.7789169469337.5394676481413317.86783347469337.061450228
1413314.95642197469336.5834328091413312.04501048469336.105415389
1413309.13392706469335.6273979691413306.22251555469335.149380565
1413303.31110406469334.6713631451413300.39969255469334.193673804
1413297.48860914  469333.71565641413294.57719764 469333.23763898
1413291.66578613469332.7596215611413288.75470272469332.281604141
1413285.84329122469331.8035867211413282.93187971469331.325569317
1413280.02046822469330.847551897 1413277.1093848469330.369862556
1413274.19797331469329.891845137 1413271.2865618469329.413827732
1413268.37547839469328.9358103131413265.46406689469328.457792893
1413262.55265538469327.9797754731413259.64124389469327.501758054
1413256.73016047469327.0240687281413253.81874897469326.546051309
1413250.90733747469326.0680338891413247.99592598469325.590016469
1413245.08484255469325.1119990651413242.17343105469324.633981645
1413239.26201956469324.1559642261413236.35093614469323.677946806
1413233.43952464 469323.200257481413230.52811314469322.722240061
1413227.61670163469322.2442226411413224.70561822469321.766205221
1413221.79420672469321.2881878171413218.88279521469320.810170397
 1413215.9717118469320.3321529781413213.06030031469319.854135558
1413210.14888881469319.376446232 1413207.2374773469318.898428813
1413204.32639389469318.4204113931413201.41498239469317.942393973
1413198.43631381469318.1654906421413196.37104037469318.320175733

Rch Text X Y=1414175.652853971,469134.38604923396
Reverse River Text= 0 

Type RM Length L Ch R = 1 ,119772.0,405.18,413.04,414.03
BEGIN DESCRIPTION:
BO
END DESCRIPTION:
Node Name=121368
XS GIS Cut Line=5
1415281.76580855468116.0081180631415145.05381164468800.870921552
1415346.66790973470233.575077146  1415463.466845470417.959707436
1415441.28960381470975.925766453
Node Last Edited Time=Oct/19/2023 13:21:16
#Sta/Elev= 450 
       0  388.68       3  388.55    5.99  388.71    8.99  388.58   14.99  387.98
   23.98  388.14   35.97  387.72   41.96  387.64   47.96  387.71   53.95  387.49
   59.95  386.73   65.94   385.8   71.94   385.7   80.93  386.33   86.92   386.9
   98.91  387.06  104.91  387.35  122.89  386.72  128.88  386.65  137.88  387.26
  143.87  387.01  155.86  386.98  161.85  386.72  167.85  386.12  170.85     386
  176.84  386.47  179.84  386.56  188.83  386.23  194.83  386.62  200.82  386.45
  206.82  386.07  212.81  385.89   218.8  385.42   224.8  385.48  230.79  385.35
  242.78  385.25  254.77  384.09  257.77  383.62  260.77  382.72  263.76   380.2
  269.76  374.77  275.75  369.69  284.75  363.83  290.74  358.78  293.74  356.88
  296.73  355.32  299.73  354.26  305.73  352.94  308.72  352.49  311.72  351.58
  314.72  349.75  317.72  347.62  320.71  346.15  326.71  345.15   332.7  343.92
   335.7  343.65  353.68  343.36  359.68  343.37  362.68  343.52  368.67  343.54
  374.66  343.37  383.66   343.3  389.65  343.58  401.64  343.64  410.63  343.56
  416.63   343.4  419.62  343.47  434.61  343.45   446.6  343.29  455.59  343.24
  461.59  343.54  470.58  343.75  476.57  343.37  497.55  343.44  506.55  343.28
  509.54  343.49  518.53  343.68  533.52  343.44  539.52  343.83  545.51  343.72
   554.5  343.69   557.5  343.46  566.49  343.45  569.49  343.74  578.48     346
  584.48  348.06  590.47  349.61  599.46  351.08  605.46  351.71  614.45  352.33
  617.45  352.43  629.44  352.23  635.43  351.92  644.42  352.01  647.42   352.7
  650.42  354.38  656.41  358.51   668.4  367.26   671.4  368.11  677.39  368.26
  683.39  368.28  686.38  368.15  689.38  367.69  695.38  367.11  701.37  365.26
  707.36  361.79  710.36  359.74  716.35  355.98  722.34  350.92  724.08  336.73
  727.01  336.81  729.85  336.55  732.88  335.92  740.56   333.2  746.62  334.77
  748.62  335.12  751.92  334.73   755.7  335.81  762.49     337  774.63  338.37
   776.6   338.9  781.36  339.25  783.55  339.59  797.22  341.12  803.22  341.71
  806.21  341.87   815.2  341.83  818.19     342  824.18     342  827.18  342.16
  842.16  342.06  848.15   342.2  854.14  342.57  860.13  342.65  866.12  342.87
  875.11  343.37   881.1  343.44  887.09  344.12  890.08  344.85  893.08  346.28
  896.08  348.16  899.07  349.77  902.07  350.74  908.06  351.09  914.05  352.39
  920.04  354.41  923.04  355.15  929.03  355.14  935.02  354.64  938.01  354.07
     944  354.09  952.99  353.89  958.98  354.27  967.97  354.24  970.96  354.44
  982.95  354.82  988.94  354.61  994.93  354.75  997.92  354.69 1000.92  354.36
 1003.91  354.32  1015.9  354.73 1024.88  354.39 1036.86  353.41 1039.86  353.42
 1048.85  354.84 1057.83  355.15 1060.83  355.16 1072.81  354.91  1078.8  354.92
 1087.79  354.19 1093.78  354.26 1102.76  354.98 1108.75  354.53 1114.75  354.25
 1126.73   354.4 1135.71  354.05  1144.7  353.88 1150.69  354.28 1156.68  353.92
 1159.68     354 1165.67  354.42 1174.66  354.09 1180.65  353.59 1189.63  354.12
 1195.62  354.79 1198.62  354.97 1204.61  355.01  1207.6  354.57  1213.6  354.57
 1216.59  354.28 1225.58  353.89 1228.57  353.92 1231.57  353.48 1234.56  353.41
 1240.55  353.56 1246.55  354.31 1252.54  354.43 1258.53  354.26 1264.52  353.75
 1270.51  353.53 1273.51  353.27  1276.5  353.37 1282.49  354.43 1288.48  354.87
 1297.47  353.83 1300.46  353.37 1303.46  353.24 1306.46  353.41 1312.45  354.18
 1318.44  354.36 1324.43  354.11 1336.41  354.24  1342.4  354.04 1348.39  354.29
 1357.38  354.09 1366.36   353.6 1375.35  353.53 1381.34   353.7 1396.32  353.47
 1402.31   353.2 1405.31  353.25  1411.3   353.6 1417.29  353.19 1420.28  353.17
 1426.27  353.61 1435.26  353.27 1444.25  353.54 1450.24  353.41 1456.23  352.92
 1462.22  352.71 1468.21  352.78  1474.2  352.54 1480.19  352.68 1486.18  352.54
 1489.18  352.33 1495.17  352.23 1498.16  351.92 1504.16  352.18 1510.15  352.12
 1516.14  352.39 1525.12  352.28 1531.11  352.61 1534.11  352.59  1540.1  351.97
 1552.08  351.87 1555.08  351.63 1561.07  351.57 1564.06  351.35 1570.06  350.44
 1573.05  350.28 1576.05   350.5 1582.04   351.8 1588.03  354.16 1591.02  354.75
 1597.01  354.77    1606  353.93 1611.99  352.83 1617.98  352.13 1620.98  351.92
 1626.97  351.91 1629.96  352.11 1632.96  352.95 1638.95   355.3 1641.95  356.01
 1653.93  357.47 1659.92  357.43 1668.91  357.62  1674.9  357.33 1683.88  356.47
 1686.88   356.3 1692.87  354.92 1695.86  354.45 1707.85  353.85 1713.84  353.64
 1719.83  354.09 1725.82  353.96 1728.81  354.11 1734.81  355.11  1740.8  356.53
 1743.79   356.2 1749.78   355.8 1755.77  356.23 1764.76  355.98 1770.75   355.6
 1776.74  355.95 1785.73  356.03 1797.71  355.49 1809.69  355.81 1821.67  355.27
 1830.66  355.39 1845.64  355.38 1851.63  355.48  1869.6  356.22  1872.6  356.24
 1878.59  355.88 1884.58  355.05 1887.57  354.79 1890.57  354.88 1893.56  355.47
 1902.55  358.67 1905.55  359.55 1908.54  360.14 1914.53  360.66 1923.52  360.99
 1932.51   361.6 1941.49  361.69 1947.48  361.51 1959.46  360.07 1965.46   358.8
 1971.45  358.07 1977.44  358.02 1986.42  357.08 1992.42  355.81 1998.41  353.98
  2001.4  352.41  2004.4  351.77 2010.39  352.08 2013.38  352.66 2019.37  354.53
 2025.36   355.8 2031.36  356.58 2034.35  356.75 2037.35   357.2 2046.33  358.05
 2049.33  357.84 2058.32   356.7  2067.3  354.76  2070.3  354.59 2076.29  354.64
 2085.27  354.94 2091.27   357.2 2094.26  358.08 2097.26  358.37 2103.25  357.31
 2109.24  356.43 2112.23  356.22 2121.22  356.88 2127.21  357.03  2133.2  356.83
 2139.19  356.95 2148.14  357.57 2154.07  357.38 2162.95  357.62 2168.88  357.44
  2174.8  357.42 2180.72  356.86 2186.65  356.98 2189.61  356.84 2195.53   356.9
 2201.46   356.3 2204.42  356.23 2210.34  356.73 2216.26  357.98 2222.19  358.59
 2228.11  359.48 2234.03  360.07 2239.96  360.34 2260.69  360.46 2266.61  360.62
 2272.54  361.17  2275.5  361.28 2284.38  360.72 2296.23  360.79 2302.15  361.07
 2308.08  360.39 2311.04  360.22 2319.92  360.09 2325.85   361.2 2331.77  361.33
 2337.69  360.88 2343.62  360.71 2349.54  360.23  2352.5  360.16 2358.43   360.4
 2364.35  360.41    2371  360.55  2374.9  360.31  2383.9  360.41  2386.9  360.29
  2395.6   359.6  2399.5  359.58    2405  359.26    2411  359.37  2415.5   359.1
    2423  358.87  2430.5  358.28  2434.6  358.23  2444.7  358.68  2458.9  358.78