Proj Title=24274737
Current Plan=
Geom File=g01