Geom Title=24274741
Program Version=631
Viewing Rectangle=1415145.05381164 , 1421343.07586439 , 471195.987319226 , 466534.405310139 

River Reach=24274741        ,24274741        
Reach XY= 1399 
1420999.89260831467673.9012025831420998.25240706467675.518841565
1420996.12970789467677.6120132211420994.00668064467679.705512971
1420991.88398147467681.7986846421420989.76095422467683.892184392
1420987.63825506467685.9853560631420985.51555589467688.078855813
1420983.39252864467690.1720274691420981.26982947467692.265527219
1420979.14713031 467694.358698891420977.02410306 467696.45219864
1420974.90140389467698.5453703111420972.77837664 467700.63887006
1420970.65567747467702.7320417311420968.53297831467704.825541481
1420966.40995106467706.9187131381420964.28725189467709.012212887
1420962.16455272467711.1053845581420960.04152547467713.198884308
1420957.91882631467715.2920559791420955.79579906467717.385555729
1420953.67309989467719.4787273851420951.55040072467721.572227135
1420949.42737347467723.665398806 1420947.3046743467725.758898556
1420945.18197514467727.8520702271420943.05894789467729.945569977
1420940.93624872467732.0387416481420938.81322147467734.132241398
 1420936.6905223467736.2254130541420934.56782314467738.318912804
1420932.44479589467740.4120844751420930.32209672467742.505584225
1420927.66002856467743.8654896471420924.99796039467745.225066975
1420922.33589222467746.5849723961420919.67349598467747.944877803
 1420917.0114278467749.3044551461420914.34935963467750.664360553
1420911.68729147467752.023937896 1420909.0252233467753.383843303
1420906.36315514467754.7437487241420903.70108697467756.103326052
1420901.03869072467757.4632314741420898.37662256467758.823136896
1420895.71455438467760.1827142241420893.05248623467761.542619646
1420890.39041805467762.9021969741420887.72834989467764.262102395
1420885.06595364467765.6220078021420882.40388547467766.981585145
1420879.74181731467768.3414905671420877.07974914467769.701395974
1420874.41768098467771.0609733161420871.75561281467772.420878723
1420869.09354463467773.7804560661420866.43114839467775.140361473
1420863.76908022467776.5002668951420861.10701205467777.859844223
1420858.44494389467779.2197496441420855.78287572467780.579655066
1420853.12080756467781.9392323941420850.45873939467783.299137816
1420847.79634313467784.6590432231420845.13427497467786.018620566
 1420842.4722068467787.3785259721420839.81013864467788.738103315
1420837.14807047467790.0980087221420834.48600231467791.457914144
1420831.82393414467792.8174914721420829.16153789467794.177396894
1420826.49946973467795.5373023151420823.83740155467796.896879643
 1420821.1753334467798.2567850651420818.51326522467799.616362393
1420815.85119705467800.9762678151420813.18880081467802.336173221
1420810.52673264467803.6957505641420807.86466447467805.055655971
1420805.20259631467806.4155613931420802.54052813467807.775138721
1420799.87845998467809.135044143 1420797.2163918467810.494621471
1420794.55399555467811.8545268921420791.89192739467813.214432314
1420789.22985922467814.5740096421420786.56779106467815.933915064
1420784.31713939467817.8538587241420782.06681581467819.774130479
1420779.81616414467821.6940741391420777.56551248467823.614017814
1420775.31518888467825.5339614751420773.06453723467827.454233229
1420770.81388555 467829.374176891420768.56356198467831.294120565
 1420766.3129103467833.2143923041420764.06258672 467835.13433598
1420761.81193505 467837.054279641420759.56128339467838.974551395
 1420757.3109598467840.8944950551420755.06030814 467842.81443873
1420752.80965647467844.7343823911420750.55933289467846.654654145
1420748.30868122467848.5745978061420746.05802956467850.494541481
1420743.80770597467852.4148132211420741.55705431467854.334756896
1420739.30640264467856.2547005561420737.05607906467858.174972311
1420734.80542739467860.0949159711420732.55477571467862.014859647
1420730.30445214467863.9348033071420728.05380048467865.855075061
1420725.80314881467867.7750187221420723.55282523467869.694962397
1420721.30217355467871.6152341371420719.05184998467873.535177812
 1420716.8011983467875.4551214721420714.55054663467877.375393227
1420712.30022305467879.2953368871420710.04957139467881.215280563
1420707.79891972467883.1352242231420705.54859614467885.055495977
1420703.29794447467886.9754396381420700.64440647467888.369137645
1420697.99086846467889.7628356371420695.33733048467891.156861722
1420692.68379247467892.5505597291420690.03025447467893.944257721
1420687.37671646467895.3379557281420684.72317848467896.731981814
1420682.06964047467898.1256798061420679.41610247467899.519377813
1420676.76256447467900.9130758051420674.10902648 467902.30710189
1420671.45548847467903.7007998971420668.80195047467905.094497889
1420666.14841247467906.4881958961420663.49487448467907.881893888
1420660.84133647467909.2759199741420658.18779847467910.669617981
1420655.53458856467912.0633159731420652.88105056 467913.45701398
1420650.22751255467914.8510400651420647.57397455467916.244738057
1420644.92043656467917.6384360641420642.26689856467919.032134056
1420639.61336055467920.4258320631420636.95982255467921.819858149
1420634.30628456467923.2135561411420631.65274656467924.607254148
1420628.99920855 467926.000952141420626.34567055467927.394978225
1420623.69213255467928.7886762321420621.03859456467930.182374224
1420618.38505656467931.5760722311420615.73151855467932.970098317
1420613.07798055467934.3637963091420610.42444256467935.757494316
1420607.77090456467937.1511923071420605.11736655467938.544890314
1420602.46382855  467939.93891641420599.81029056467941.332614392
1420597.15675256467942.7263123991420594.50321455467944.120010391
1420591.84967655467945.5140364771420589.19613856467946.907734469
1420586.54260056467948.3014324751420583.88906255467949.695130482
1420581.23552455467951.0888284741420578.58198656 467952.48285456
1420575.92844856467953.8765525521420573.27491055467955.270250559
1420570.62137255467956.6639485661420567.96783456467958.057974637
1420565.31462464467959.4516726431420562.66108663467960.845370635
1420560.00754865467962.2390686421420557.35401064467963.633094728
1420554.70047264 467965.026792721420552.04693463467966.420490727
1420549.39339663467967.8141887191420546.73985864467969.207886726
1420544.08632064467970.6019128111420541.43278264467971.995610803
1420538.77924463 467973.389308811420536.12570664467974.783006802
1420533.47216864467976.1770328881420530.81863064467977.570730895
1420528.16509263467978.9644288871420525.51155464467980.358126894
1420522.85801664467981.7518248861420520.20447864467983.145850971
1420517.55094063467984.5395489781420514.89740264 467985.93324697
1420512.24386464467987.3269449771420509.59032664467988.720971063
1420506.93678863467990.1146690551420504.28325064467991.508367062
1420501.62971264467992.9020650541420498.97617464467994.296091139
1420496.32263663467995.6897891461420493.66909865467997.083487138
1420491.01556064467998.4771851451420488.36202264467999.870883137
1420485.70848463468001.2649092231420483.05494663 468002.65860723
1420480.40140864468004.0523052221420477.74787064468005.446003228
1420475.09466071468006.8400293141420472.44112273468008.233727306
1420469.78758472468009.6274253131420467.13404672468011.021123305
1420464.48050871468012.4148213121420461.82697073468013.808847398
1420459.17343272 468015.202545391420456.51989472468016.596243396
1420453.86635672468017.9899413881420451.21281873468019.383967474
1420448.55928072468020.7776654811420445.90574272468022.171363473
1420443.25220472 468023.565061481420440.59866673468024.959087566
1420437.94512872468026.3527855581420435.29159072468027.746483564
1420432.63805272468029.1401815561420429.98451473468030.533879563
1420427.33097672468031.9279056491420424.67743872468033.321603641
1420422.02390072468034.7153016481420419.37036273 468036.10899964
1420416.71682473468037.5030257251420414.06328672468038.896723732
1420411.40974872468040.2904217241420408.75621071468041.684119731
1420406.10267273468043.0778177231420403.44913472468044.471843809
1420400.79559672468045.8655418161420398.14205872468047.259239808
1420395.48852073468048.6529378151420392.83498272468050.046963885
1420390.18144472468051.4406618921420387.52790672468052.834359899
1420384.87469681468054.228057891 1420382.2211588468055.622083977
 1420379.5676208468057.0157819691420376.91408281468058.409479976
1420374.26054481468059.803177983 1420371.6070068468061.196875975
 1420368.9534688 468062.590902061420366.29993081468063.984600052
1420363.64639281468065.378298059 1420360.9928548468066.771996066
 1420358.3393168468068.1660221371420355.68577881468069.559720144
1420353.03224081468070.953418136 1420350.3787028468072.347116143
 1420347.7251648468073.7408141491420345.07162681 468075.13484022
1420342.41808881468076.5285382271420339.76455081468077.922236219
 1420337.1110128468079.315934226 1420334.4574748468080.709960312
1420331.80393681468082.1036583041420329.15039881 468083.49735631
 1420326.4968608468084.891054302 1420323.8433228468086.285080388
1420321.18978481468087.6787783951420318.53624681468089.072476387
 1420315.8827088468090.466174394 1420313.2291708468091.859872386
1420310.57563281468093.2538984721420307.92209481468094.647596478
 1420305.2685568 468096.04129447 1420302.6150188468097.434992477
1420299.96148081468098.8290185631420297.30794281468100.222716555
1420294.65473288468101.6164145621420292.00119489468103.010112554
1420289.34765689468104.4038105611420286.69411889468105.797836646
1420284.04058088468107.1915346381420281.38704289468108.585232645
1420278.73350489468109.9789306371420276.07996689468111.372956723
1420273.42642888 468112.76665473 1420270.7728909468114.160352722
1420268.11935289468115.5540507291420265.46581489468116.948076814
1420262.81227688468118.3417748061420260.15873888468119.735472813
1420257.50520089468121.1291708051420254.85166289468122.522868812
1420252.19812489468123.9168948981420249.54458688 468125.31059289
1420246.89104889468126.7042908971420244.23751089468128.097988889
1420241.58397289468129.4920149741420238.93043488468130.885712981
1420236.27689689468132.2794109731420233.62335889 468133.67310898
1420230.96982089468135.0668069721420228.31628288468136.460833058
1420225.66274489468137.8545310651420223.00920689468139.248229057
1420220.35566889468140.6419270631420217.70213088468142.035953149
 1420215.0485929468143.4296511411420212.39505489468144.823349148
1420209.74151689 468146.217047141420207.08797888468147.611073226
1420204.43444088468149.0047712331420201.78123097468150.398469225
1420199.12769297468151.7921672311420196.47415496468153.185865223
1420193.82061698468154.5798913091420191.16707897468155.973589316
1420188.51354097468157.3672873081420185.86000296468158.760985315
1420183.20646498468160.1550113861420180.55292697468161.548709393
1420177.89938897468162.9424073991420175.24585097468164.336105391
1420172.59231298468165.7298033981420169.93877497468167.123829469
1420167.28523697468168.5175274761420164.63169897468169.911225483
1420161.97816098468171.3049234751420159.32462297468172.698949561
1420156.67108497468174.0926475521420154.01754697468175.486345559
1420151.36400898468176.8800435661420148.71047097468178.273741558
1420146.05693297468179.6677676441420143.40339497468181.061465636
1420140.74985698468182.4551636431420138.09631898 468183.84886165
1420135.44278097 468185.242887721420132.78924297468186.636585727
1420130.13570496468188.0302837191420127.48216698468189.423981726
1420124.82862897468190.8180078121420122.17509097468192.211705804
1420119.52155297468193.6054038111420116.86801498468194.999101803
1420114.21447697 468196.392799811420111.56126705468197.786825895
1420108.90772906468199.1805238871420106.25419106468200.574221894
1420103.60065305468201.9679198861420100.94711505468203.361945972
1420098.29357706468204.7556439791420095.64003906468206.149341971
1420092.98650105468207.5430399781420090.33296305468208.937066063
1420087.67942506468210.3307640551420085.02588706468211.724462062
1420082.37234905468213.1181600541420079.71881105468214.511858061
1420077.06527306468215.9058841471420074.41173506468217.299582139
1420071.75819705468218.6932801461420069.10465905468220.086978137
1420066.45112106468221.4810042231420063.79758306 468222.87470223
1420061.14404505468224.2684002221420058.49050705468225.662098229
1420055.83696905468227.0557962211420053.18343106468228.449822307
1420050.52989306468229.8435203141420047.87635505468231.237218305
1420045.22281705468232.6309163121420042.56927906468234.024942398
1420039.91574106 468235.418640391420037.26220305468236.812338397
1420034.60866505468238.2060363891420031.95512706468239.600062475
1420029.30158906468240.9937604811420026.64805105468242.387458473
1420023.99451305 468243.781156481420021.34130314468245.174854472
1420018.68776514468246.5688805581420016.03422713468247.962578565
1420013.38068914468249.3562765571420010.72715114468250.749974564
1420008.07361314468252.1440006491420005.42007513468253.537698641
1420002.76653714468254.9313966481420000.11299914 468256.32509464
1419997.45946114468257.7187926471419994.80592313468259.112818733
1419992.15238515468260.5065167251419989.49884714468261.900214732
1419986.84530914468263.2939127241419984.19177113468264.687938809
1419981.53823313468266.0816368161419978.88469514468267.475334808
1419976.23115714468268.8690328151419973.57761914468270.262730807
1419970.92408113468271.6567568931419968.27054314  468273.0504549
1419965.61700514468274.4441528921419962.96346714468275.837850899
1419960.30992913468277.2318769691419957.65639114468278.625574976
1419955.00285314468280.0192729831419952.34931514468281.412970975
1419949.69577713468282.8069970611419947.04223914468284.200695053
1419944.38870114 468285.594393061419941.73516314468286.988091066
1419939.08162513468288.3817890581419936.42808715468289.775815144
1419933.77454914468291.1695131361419931.12133922468292.563211143
1419928.46780123 468293.956909151419925.81426322468295.350935221
1419923.16072522468296.7446332281419920.50718722 468298.13833122
1419917.85364923468299.5320292261419915.20011123468300.926055312
1419912.54657322468302.3197533041419909.89303522468303.713451311
1419907.23949721468305.1071493031419904.58595923 468306.50084731
1419901.93242122468307.8948733961419899.27888322468309.288571388
1419896.62534522468310.6822693941419893.97180723468312.075967386
1419891.31826922468313.4699934721419888.66473122468314.863691479
1419886.01119322468316.2573894711419884.28120981468318.685534224
1419882.55122639468321.1136789771419880.82124297468323.541495636
1419879.09125955468325.9696403891419877.36127613468328.397785142
1419875.63129272468330.8259298951419873.90130931468333.253746554
1419872.17132589468335.6818913071419870.44134247 468338.11003606
1419868.71135905468340.5381808131419866.98137563468342.965997472
1419865.25139222468345.3941422251419863.52140881468347.822286978
 1419861.7910973468350.2504317311419860.06111389468352.678248391
1419858.33113047468355.1063931441419856.60114706468357.534537897
1419854.87116364468359.9626826491419853.14118022468362.390499309
 1419851.4111968468364.8186440621419849.68121339468367.246788815
1419847.95122997468369.6749335531419846.22124656468372.102750227
1419844.49126314 468374.530894981419842.76127972468376.959039733
 1419841.0312963468379.3868563921419839.30131289468381.815001145
1419837.57132947468384.2431458981419835.84134606468386.671290636
1419834.11136264468389.0994353891419832.38137922468391.527252063
 1419830.6513958468393.9553968161419828.92141239468396.383541554
1419827.19142897468398.8116863071419825.46144556468401.239502981
1419823.73146214468403.6676477191419822.00147872468406.095792472
 1419820.2714953468408.5239372251419818.54151189468410.951753899
1419816.81152847468413.3798986381419815.08121698468415.808043391
1419813.35123356468418.2361881431419811.62125014468420.664004803
1419809.89126672468423.092149556 1419808.1612833468425.520294309
 1419806.4312999468427.9484390621419804.70131648468430.376255721
1419802.97133306468432.8044004741419801.24134964468435.232545227
1419799.51136622 468437.66068998 1419797.7813828468440.088506639
1419796.05139939468442.5166513921419794.32141598468444.944796145
1419792.59143256468447.3729408981419790.86144914468449.800757557
1419789.13146572 468452.22890231 1419787.4014823468454.657047063
1419785.67149889468457.0851918161419783.94151548468459.513008475
1419782.21153206468461.9411532281419780.48154864468464.369297981
1419778.75156522468466.797442719 1419777.0215818468469.225259393
1419775.29159839468471.6534041461419773.56161498468474.081548899
1419771.83163156468476.5096936371419770.10164814468478.937510312
1419768.37166472468481.3656550651419766.64135322468483.793799803
 1419764.9113698468486.2219445561419763.18138638 468488.64976123
1419761.45140298468491.0779059831419759.72141956468493.506050721
1419757.99143614468495.9341954741419756.26145272468498.362012148
 1419754.5314693468500.7901568861419752.80148588468503.218301639
1419751.07150248468505.6464463921419749.34151906468508.074263066
1419747.61153564468510.5024078041419745.88155222468512.930552557
 1419744.1515688 468515.358697311419742.42158538468517.786513969
1419740.69160198468520.2146587221419738.96161856468522.642803475
1419737.23163514468525.0709482281419735.50165172468527.498764887
 1419733.7716683 468529.926909641419732.04168488468532.355054393
1419730.31170148468534.7831991461419728.58171806468537.211015806
1419726.85173464468539.6391605591419725.12175122468542.067305312
 1419723.3917678468544.495450065 1419721.6617844468546.923266724
1419719.93147288468549.3514114771419718.20148948 468551.77955623
1419716.47150606468554.2077009831419714.74152264468556.635517642
1419713.01153922468559.063662395 1419711.2815558468561.491807148
1419709.55157238468563.9199518861419707.82158898 468566.34776856
1419706.09160556468568.7759133131419704.36162214468571.204058066
1419702.63163872468573.632202804 1419700.9016553468576.060019478
1419699.17167188468578.4881642311419697.44168848468580.916308969
1419695.71170506468583.3444537221419693.98172164468585.772270396
1419692.25173822468588.200415149 1419690.5217548468590.628559887
1419688.79177138 468593.056704641419687.06178798468595.484521315
1419685.33180456468597.9126660531419683.60182114468600.340810806
1419681.87183772468602.768955559 1419680.1418543468605.196772233
1419678.41187088468607.6249169711419676.68188748468610.053061724
1419674.95190406468612.4812064771419673.22159256468614.909023136
1419671.49160914468617.3371678891419669.76162572468619.765312642
 1419668.0316423468622.1934573951419666.30165888468624.621274054
1419664.57167546468627.0494188071419662.84169206 468629.47756356
1419661.11170864468631.9057083131419659.38172522468634.333524972
 1419657.6517418468636.7616697251419655.92175838468639.189814478
1419654.19177496468641.6179592311419652.46179156 468644.04577589
1419650.73180814468646.4739206431419651.06776547468649.449636474
1419651.40372281468652.4253523051419651.73968014 468655.40139623
1419652.07563747468658.3771120611419652.41159481468661.352827892
1419652.74755214468664.3285437231419653.08350947468667.304587647
1419653.41946681468670.2803034781419653.75575222468673.256019309
1419654.09170955 468676.231735141419654.42766689468679.207779065
1419654.76362422468682.1834948961419655.09958155468685.159210727
1419655.43553889468688.1349265581419655.77149622468691.110642388
1419656.10745355468694.0866863131419656.44341089468697.062402144
1419656.77936822468700.0381179751419657.11532556468703.013833806
1419657.45128289468705.9898777311419657.78724022468708.965593562
1419658.12319756468711.9413093921419658.45915489468714.917025223
1419658.79511222468717.8930691481419659.13106956468720.868784979
1419659.46735497 468723.84450081 1419659.8033123468726.820216641
1419660.13926964468729.7962605661419660.47522697468732.771976396
 1419660.8111843468735.7476922271419661.14714164468738.723408058
1419661.48309897468741.699123889 1419661.8190563468744.675167814
1419662.15501364468747.6508836451419662.49097097468750.626599476
 1419662.8269283468753.6023153071419663.16288564468756.578359231
1419663.49884297468759.554075062 1419663.8348003468762.529790893
1419664.17075764468765.5055067241419664.50671497468768.481550649
 1419664.8426723 468771.457266481419665.17895772468774.432982311
1419665.51491505468777.4086981421419665.85087238468780.384413973
1419666.18682972468783.3604578971419666.52278705468786.336173728
1419666.85874438468789.3118895591419667.19470172 468792.28760539
1419667.53065905468795.2636493151419667.86661638468798.239365146
1419668.20257372468801.2150809761419668.53853105468804.190796807
1419668.87448838468807.1668407321419669.21044572468810.142556563
1419669.54640305468813.1182723941419669.88236038468816.093988225
1419670.21831772468819.0697040561419670.55427505 468822.04574798
1419670.89023238468825.0214638111419671.22651781468827.997179642
1419671.56247514468830.9728954731419671.89843248468833.948939398
1419672.23438981468836.9246552291419672.57034715 468839.90037106
1419672.90630448468842.8760868911419673.24226181468845.852130815
1419673.57821915468848.8278466461419673.91417648468851.803562477
 1419674.2501338468854.7792783081419674.58609113468857.755322233
1419674.92204846468860.731038064 1419675.2580058468863.706753895
1419675.59396313468866.6824697261419675.92992046468869.658185557
 1419676.2658778468872.6342294811419676.60183513468875.609945312
1419676.93812056468878.5856611431419677.27407789468881.561376974
1419677.61003523468884.5374208991419677.94599256 468887.51313673
1419678.28194989468890.4888525611419678.61790723468893.464568391
1419678.95386456468896.4406123161419679.28982189468899.416328147
1419679.62577923468902.3920439781419681.03686564468905.038036063
1419682.44828014468907.6840281491419683.85936655468910.330020219
1419685.27045298468912.9760123041419686.68153939 468915.62200439
1419688.09295389468918.267996475 1419689.5040403468920.913660482
1419690.91512673468923.5596525521419692.32654122468926.205644637
1419693.73762764468928.8516367231419695.14871405468931.497628808
1419696.56012855468934.1436208931419697.97121496468936.789612979
1419699.38230139468939.435605064 1419700.7933878468942.081597149
 1419702.2048023 468944.727589221419703.61588871468947.373581305
1419705.02697514 468950.019573391419706.43838964468952.665565476
1419707.84947605468955.3112294821419709.26056246468957.957221553
1419710.67197697468960.6032136381419712.08306339468963.249205723
 1419713.4941498468965.8951978091419714.90523621468968.541189894
1419716.31665072468971.1871819791419717.72773714468973.833174065
1419719.13882355 468976.479166151419720.55023806468979.125158221
1419721.96132447468981.7711503061419723.37241089468984.417142391
1419724.78382538468987.0631344771419726.19491181468989.708798483
1419727.60599822468992.3547905531419729.01708464468995.000782639
1419730.42849913468997.6467747241419731.83958556469000.292766809
1419733.25067197469002.9387588951419734.66208647 469005.58475098
1419736.07317288469008.2307430651419737.48425931469010.876735136
1419738.89567381469013.5227272211419740.30676022469016.168719307
1419741.71784663469018.8147113921419743.12893306469021.460703477
1419744.54034756469024.1063674691419745.95143397469026.752359554
1419747.36252038 469029.398351641419748.77393489469032.044343725
1419750.18502131 469034.690335811419751.59610772469037.336327896
1419753.00752223469039.9823199811419754.41860864469042.628312066
1419755.82969506469045.2743041371419757.24078147469047.920296222
1419758.65219598469050.5662883071419760.06328239469053.212280393
1419761.47436881469055.858272478 1419762.8857833 469058.50393647
1419764.29686972469061.1499285551419765.70795614 469063.79592064
1419767.11937064469066.4419127261419768.53045705469069.087904811
1419769.94154347469071.7338968961419771.35262989469074.379888982
1419772.76404439469077.025881052 1419774.1751308469079.671873137
1419775.58621722469082.3178652231419776.99763173469084.963857308
1419778.40871814469087.6098493931419779.81980455469090.255841479
1419781.23121905 469092.901505471419782.64230548469095.547497556
1419784.05339189469098.193489641 1419785.4644783469100.839481726
 1419786.8758928469103.4854738121419788.28697923469106.131465897
1419789.69806564469108.7774579821419791.10948014469111.423450053
1419792.52056655469114.0694421381419793.93165298469116.715434223
1419795.34306747469119.3614263091419796.75415389469122.007418394
 1419798.1652403469124.6534104791419799.57632673469127.299074471
1419800.98774122469129.9450665561419802.39882764469132.591058642
1419803.80991405469135.2370507271419805.22132856469137.883042812
1419806.63241497469140.5290348981419808.04350139469143.175026983
1419809.45491588469145.8210190531419810.86600231469148.467011139
1419812.27708872469151.1130032241419813.68817514469153.758995309
1419815.09958963469156.4049873951419816.51067606 469159.05097948
1419817.92176247469161.6966434721419819.33317697469164.342635557
1419820.74426338469166.9886276421419822.15534981469169.634619728
1419823.56676431469172.2806118131419824.97785072469174.926603898
1419826.38893715469177.5725959691419827.80002356469180.218588054
1419829.21143806 469182.864580141419830.62252447469185.510572225
 1419832.0336109 469188.156564311419833.44502538469190.802556396
1419834.85611181469193.4485484811419836.26719822469196.094212472
1419837.67861272469198.7402045581419839.08969913469201.386196643
1419840.50078556469204.0321887281419841.91187197469206.678180814
1419843.32328647469209.3241728991419844.73437288 469211.97016497
1419843.92663172469214.8415503051419843.11921863469217.712935641
1419842.31147747469220.5846490561419841.50406438469223.456034392
1419840.69632322469226.3274197281419839.88891014469229.198805064
1419839.08116896469232.070518479 1419838.2734278469234.941903815
1419837.46601473469237.8132891361419836.65827355469240.684674472
1419835.85086048469243.5560598081419835.04311931469246.427773222
1419834.23570623469249.2991585581419833.42796506469252.170543894
1419832.62055197 469255.041929231419831.81281081469257.913314566
1419831.00506964469260.7850279811419830.19765656469263.656413317
1419829.38991539469266.5277986381419828.58250231469269.399183974
1419827.77476114469272.2708973881419826.96734805469275.142282724
1419826.15960689 469278.013668061419825.35186572469280.885053396
1419824.54445264469283.7564387321419823.73671147469286.628152147
1419822.92929839469289.4995374831419822.12155722469292.370922804
1419821.31414413 469295.242308141419820.50640297469298.114021555
 1419819.6986618469300.9854068911419818.89124872469303.856792226
1419818.08350755469306.7281775621419817.27609447469309.599562898
1419814.36676554469314.7830228461419810.19681204469320.176313491
1419806.86716557469323.888333915 1419803.0910927469326.617761818
1419800.41835948469328.3701519331419796.67056513469330.787656293
1419793.50233518469332.4106240061419788.67484984469334.947513051
1419784.08486252469337.1344480581419778.77230909  469339.6602808
1419775.06324475469341.5592759311419771.81591845469343.014888688
1419769.11765494469344.5133209671419765.34920418469346.092000922
1419761.79091219469347.8811677491419758.65293773 469349.24968893
1419755.30480452469351.4588452141419751.74651252469352.617207633
1419748.81869686469353.3555805661419745.47056365469354.303784209
1419742.75323484469355.2519878391419740.24573672469356.200191483
1419737.31792106 469356.728405641419734.39010538469357.256291732
1419731.46228972 469357.784177811419728.53447406469358.312063888
1419725.60665838469358.8402780591419722.67884272469359.368164137
1419719.75102705 469359.896050231419716.82321139469360.423936307
1419713.89539573  469360.95182241419710.96758005469361.480036557
1419708.03976439469362.0079226491419705.11194873469362.535808727
1419702.18446113469363.0636948051419699.25664547469363.591908976
1419696.32882981469364.1197950541419693.40101413469364.647681147
1419690.47319847469365.175567225 1419687.5453828469365.703781396
1419684.61756714469366.2316674741419681.68975148469366.759553567
 1419678.7619358469367.2874396441419675.83412014469367.815325722
1419672.90630448469368.343539894 1419669.9784888469368.871425971
1419667.05067314469369.3993120641419664.12285747469369.927198142
1419661.19504181469370.4554123131419658.26755422469370.983298391
1419655.33973855469371.5111844691419652.41192289469372.039070562
1419649.48410723469372.5672847331419646.55629155469373.095170811
1419643.62847589469373.6230568891419640.70066023469374.150942981
1419637.77284455469374.6788290591419634.84502889469375.207043231
1419631.91721322469375.7349293081419628.98939756469376.262815386
1419626.06158189469376.7907014791419623.13376622469377.318915635
1419620.20595056469377.8468017281419617.27846298469378.374687806
 1419614.3506473469378.9025738981419611.42283164469379.430788055
1419608.49501598469379.958674148 1419605.5672003469380.486560225
1419602.63938464469381.0144463031419599.71156897469381.542660475
1419596.78375331469382.0705465531419593.85593764469382.598432645
1419590.92812197469383.1263187231419588.00030631469383.654204816
1419585.07249063469384.1824189721419582.14467497469384.710305065
1419579.21685931469385.2381911431419576.28937173 469385.76607722
1419573.36155605469386.2942913921419570.43374039 469386.82217747
1419567.50592472469387.3500635621419564.57810906 469387.87794964
1419561.65029339469388.4061638121419558.72247772469388.934049889
1419555.79466206469389.4619359821419552.85437922469389.009509057
1419549.91409639469388.5570821461419546.97381355469388.104983315
1419544.03353073 469387.652556391419541.09324789469387.200129479
1419538.15296505469386.7477025541419535.21268222469386.295603722
1419532.27239938469385.8431768121419529.33211656469385.390749887
1419526.39183372469384.9383229761419523.45155089469384.485896066