Plan Title=24274741_ind
Short Identifier=24274741_ind
Geom File=g01
Flow File=f01
Run RASMapper= 0 