Proj Title=24274741
Current Plan=p02
Geom File=g01
Flow File=f01
Plan File=p01
Flow File=f02
Plan File=p02