Plan Title=24274741_nd
Short Identifier=24274741_nd
Geom File=g01
Flow File=f02
Run RASMapper=-1 