Flow Title=24274741_ind
Number of Profiles= 15
Profile Names=17600,20867,24135,27402,30670,33937,37205,40473,43740,47008,50275,53543,56810,60078,63346
River Rch & RM=24274741,24274741        ,128994.0
   17600   20867   24135   27402   30670   33937   37205   40473   43740   47008
   50275   53543   56810   60078   63346
Boundary for River Rch & Prof#=24274741,24274741        , 1
Up Type= 0 
Dn Type= 3 
Dn Slope=0.001
Boundary for River Rch & Prof#=24274741,24274741        , 2
Up Type= 0 
Dn Type= 3 
Dn Slope=0.001
Boundary for River Rch & Prof#=24274741,24274741        , 3
Up Type= 0 
Dn Type= 3 
Dn Slope=0.001
Boundary for River Rch & Prof#=24274741,24274741        , 4
Up Type= 0 
Dn Type= 3 
Dn Slope=0.001
Boundary for River Rch & Prof#=24274741,24274741        , 5
Up Type= 0 
Dn Type= 3 
Dn Slope=0.001
Boundary for River Rch & Prof#=24274741,24274741        , 6
Up Type= 0 
Dn Type= 3 
Dn Slope=0.001
Boundary for River Rch & Prof#=24274741,24274741        , 7
Up Type= 0 
Dn Type= 3 
Dn Slope=0.001
Boundary for River Rch & Prof#=24274741,24274741        , 8
Up Type= 0 
Dn Type= 3 
Dn Slope=0.001
Boundary for River Rch & Prof#=24274741,24274741        , 9
Up Type= 0 
Dn Type= 3 
Dn Slope=0.001
Boundary for River Rch & Prof#=24274741,24274741        , 10
Up Type= 0 
Dn Type= 3 
Dn Slope=0.001
Boundary for River Rch & Prof#=24274741,24274741        , 11
Up Type= 0 
Dn Type= 3 
Dn Slope=0.001
Boundary for River Rch & Prof#=24274741,24274741        , 12
Up Type= 0 
Dn Type= 3 
Dn Slope=0.001
Boundary for River Rch & Prof#=24274741,24274741        , 13
Up Type= 0 
Dn Type= 3 
Dn Slope=0.001
Boundary for River Rch & Prof#=24274741,24274741        , 14
Up Type= 0 
Dn Type= 3 
Dn Slope=0.001
Boundary for River Rch & Prof#=24274741,24274741        , 15
Up Type= 0 
Dn Type= 3 
Dn Slope=0.001